Version 4.1
SHEET 1 1312 680
WIRE 304 -256 272 -256
WIRE 448 -240 368 -240
WIRE 496 -240 448 -240
WIRE 304 -224 272 -224
WIRE 928 -176 672 -176
WIRE 1040 -176 992 -176
WIRE 928 -160 880 -160
WIRE 752 -128 736 -128
WIRE 768 -128 752 -128
WIRE 880 -128 880 -160
WIRE 880 -128 832 -128
WIRE 1040 -128 1040 -176
WIRE 1088 -128 1040 -128
WIRE 1200 -128 1152 -128
WIRE 1088 -112 1040 -112
WIRE -64 -96 -96 -96
WIRE 752 -64 752 -128
WIRE 928 -64 752 -64
WIRE 1040 -64 1040 -112
WIRE 1040 -64 992 -64
WIRE 672 -48 672 -176
WIRE 752 -48 672 -48
WIRE 928 -48 832 -48
WIRE 304 -32 272 -32
WIRE 448 -16 368 -16
WIRE 496 -16 448 -16
WIRE -64 0 -64 -16
WIRE -32 0 -64 0
WIRE 304 0 272 0
WIRE -64 16 -64 0
WIRE 752 32 752 -48
WIRE 752 32 736 32
WIRE 768 32 752 32
WIRE 832 32 832 -48
WIRE 752 96 752 32
WIRE 752 96 672 96
WIRE 832 96 832 32
WIRE 928 96 832 96
WIRE 1040 96 992 96
WIRE -64 112 -64 96
WIRE -32 112 -64 112
WIRE 928 112 752 112
WIRE -64 128 -64 112
WIRE 1040 144 1040 96
WIRE 1088 144 1040 144
WIRE 1200 144 1152 144
WIRE 1088 160 1040 160
WIRE 752 208 752 112
WIRE 752 208 736 208
WIRE 768 208 752 208
WIRE 928 208 832 208
WIRE 1040 208 1040 160
WIRE 1040 208 992 208
WIRE -64 224 -64 208
WIRE -32 224 -64 224
WIRE 928 224 880 224
WIRE -64 240 -64 224
WIRE 304 240 272 240
WIRE 448 256 368 256
WIRE 496 256 448 256
WIRE 304 272 272 272
WIRE 672 288 672 96
WIRE 880 288 880 224
WIRE 880 288 672 288
WIRE -64 336 -64 320
FLAG 448 64 0
FLAG 496 -16 B2
IOPIN 496 -16 Out
FLAG -496 144 0
FLAG -496 64 Vin
IOPIN -496 64 Out
FLAG -336 80 VDD
IOPIN -336 80 Out
FLAG -336 160 0
FLAG 336 -48 VDD
IOPIN 336 -48 Out
FLAG 336 16 0
FLAG -96 -96 VDD
IOPIN -96 -96 In
FLAG -32 0 V_2
IOPIN -32 0 Out
FLAG -32 112 V_1
IOPIN -32 112 Out
FLAG -32 224 V_0
IOPIN -32 224 Out
FLAG 272 0 Vin
IOPIN 272 0 In
FLAG 272 -32 V_1
IOPIN 272 -32 In
FLAG -64 336 0
FLAG 448 336 0
FLAG 336 224 VDD
IOPIN 336 224 Out
FLAG 336 288 0
FLAG 272 272 Vin
IOPIN 272 272 In
FLAG 272 240 V_2
IOPIN 272 240 In
FLAG 448 -160 0
FLAG 336 -272 VDD
IOPIN 336 -272 Out
FLAG 336 -208 0
FLAG 272 -256 V_0
IOPIN 272 -256 In
FLAG 272 -224 Vin
IOPIN 272 -224 In
FLAG 496 -240 B1
IOPIN 496 -240 Out
FLAG 496 256 B3
IOPIN 496 256 Out
FLAG 736 -128 B3
IOPIN 736 -128 In
FLAG 736 32 B2
IOPIN 736 32 In
FLAG 736 208 B1
IOPIN 736 208 In
FLAG 1200 -128 MSB
IOPIN 1200 -128 Out
FLAG 1200 144 LSB
IOPIN 1200 144 Out
SYMBOL res 464 80 R180
WINDOW 0 36 76 Left 2
WINDOW 3 36 40 Left 2
SYMATTR InstName R1
SYMATTR Value 10k
SYMBOL voltage -496 48 R0
WINDOW 3 24 44 Left 2
WINDOW 123 24 124 Left 2
WINDOW 39 0 0 Left 0
SYMATTR InstName Vin
SYMATTR Value 3.8
SYMBOL voltage -336 64 R0
SYMATTR InstName V1
SYMATTR Value 5
SYMBOL res -48 0 R180
WINDOW 0 36 76 Left 2
WINDOW 3 36 40 Left 2
SYMATTR InstName R2
SYMATTR Value 1k
SYMBOL res -48 224 R180
WINDOW 0 36 76 Left 2
WINDOW 3 36 40 Left 2
SYMATTR InstName R3
SYMATTR Value 1k
SYMBOL res -48 112 R180
WINDOW 0 36 76 Left 2
WINDOW 3 36 40 Left 2
SYMATTR InstName R4
SYMATTR Value 1k
SYMBOL res -80 224 R0
SYMATTR InstName R5
SYMATTR Value 1k
SYMBOL res 464 352 R180
WINDOW 0 36 76 Left 2
WINDOW 3 36 40 Left 2
SYMATTR InstName R6
SYMATTR Value 10k
SYMBOL res 464 -144 R180
WINDOW 0 36 76 Left 2
WINDOW 3 36 40 Left 2
SYMATTR InstName R7
SYMATTR Value 10k
SYMBOL Digital\\and 960 160 R0
SYMATTR InstName A1
SYMBOL Digital\\and 960 48 R0
SYMATTR InstName A2
SYMBOL Digital\\and 960 -112 R0
SYMATTR InstName A3
SYMBOL Digital\\and 960 -224 R0
SYMATTR InstName A4
SYMBOL Digital\\inv 768 -192 R0
SYMATTR InstName A5
SYMBOL Digital\\inv 768 -32 R0
SYMATTR InstName A6
SYMBOL Digital\\inv 768 144 R0
SYMATTR InstName A7
SYMBOL Digital\\and 1120 -176 R0
SYMATTR InstName A8
SYMBOL Digital\\and 1120 96 R0
SYMATTR InstName A9
SYMBOL Comparators\\LT1016 336 -304 R0
SYMATTR InstName U1
TEXT -576 376 Left 2 !.tran 0 5 0
RECTANGLE Normal -256 208 -576 -32 2
RECTANGLE Normal 48 368 -192 -128 2
RECTANGLE Normal 1296 320 592 -240 2
RECTANGLE Normal 576 368 128 -352 2
